Version 4
SHEET 1 880 680
WIRE 336 16 112 16
WIRE 336 80 336 16
WIRE 112 128 112 16
WIRE 112 256 112 208
WIRE 336 256 336 144
WIRE 336 256 112 256
FLAG 112 256 0
SYMBOL voltage 112 112 R0
WINDOW 123 0 0 Left 0
WINDOW 39 0 0 Left 0
SYMATTR InstName V1
SYMATTR Value 0
SYMBOL diode 320 80 R0
SYMATTR InstName D1
TEXT 144 304 Left 2 !.dc V1 0 2.5 0.01
TEXT 144 336 Left 2 !.temp 25 125
